3mgs/circuit_plusmg_1.dss
clear
set defaultbasefrequency=60
new object=circuit.lehigh basekv=115 pu=1.0001 phases=3 bus1=sourcebus angle=30 mvasc3=20000 mvasc1=21000
edit object=vsource.source basekv=115 bus1=sourcebus.1.2.3 pu=1.00 r1=0 x1=0.0001 r0=0 x0=0.0001
new object=vsource.secondsource basekv=4.16 bus1=680.1.2.3 pu=1.00 r1=0 x1=0.0001 r0=0 x0=0.0001
new object=transformer.sub phases=3 windings=2 xhl=0.008 buses=[sourcebus.1.2.3,650.1.2.3] conns=[delta,wye] kvs=[115,4.16] kvas=[5000,5000] %rs=[0.0005,0.0005]
new object=transformer.reg1 phases=1 bank=reg1 xhl=0.01 kvas=[1666,1666] buses=[650.1,rg60.1] kvs=[2.4,2.4] %loadloss=0.01
new object=regcontrol.reg1 transformer=reg1 winding=2 vreg=121 band=2 ptratio=20 ctprim=700 r=3 x=9
new object=transformer.reg2 phases=1 bank=reg1 xhl=0.01 kvas=[1666,1666] buses=[650.2,rg60.2] kvs=[2.4,2.4] %loadloss=0.01
new object=regcontrol.reg2 transformer=reg2 winding=2 vreg=121 band=2 ptratio=20 ctprim=700 r=3 x=9
new object=transformer.reg3 phases=1 bank=reg1 xhl=0.01 kvas=[1666,1666] buses=[650.3,rg60.3] kvs=[2.4,2.4] %loadloss=0.01
new object=regcontrol.reg3 transformer=reg3 winding=2 vreg=121 band=2 ptratio=20 ctprim=700 r=3 x=9
new object=transformer.xfm1 phases=3 windings=2 xhl=2 buses=[633.1.2.3,634.1.2.3] conns=[wye,wye] kvs=[4.16,0.480] kvas=[500,500] %rs=[0.55,0.55] xht=1 xlt=1
new object=linecode.mtx601 nphases=3 basefreq=60 rmatrix=[0.3465|0.1560,0.3375|0.1580,0.1535,0.3414] xmatrix=[1.0179|0.5017,1.0478|0.4236,0.3849,1.0348] units=mi
new object=linecode.mtx602 nphases=3 basefreq=60 rmatrix=[0.7526|0.1580,0.7475|0.1560,0.1535,0.7436] xmatrix=[1.1814|0.4236,1.1983|0.5017,0.3849,1.2112] units=mi
new object=linecode.mtx603 nphases=2 basefreq=60 rmatrix=[1.3238|0.2066,1.3294] xmatrix=[1.3569|0.4591,1.3471] units=mi
new object=linecode.mtx604 nphases=2 basefreq=60 rmatrix=[1.3238|0.2066,1.3294] xmatrix=[1.3569|0.4591,1.3471] units=mi
new object=linecode.mtx605 nphases=1 basefreq=60 rmatrix=[1.3292] xmatrix=[1.3475] units=mi
new object=linecode.mtx606 nphases=3 units=mi rmatrix=[0.791721|0.318476,0.781649|0.28345,0.318476,0.791721] xmatrix=[0.438352|0.0276838,0.396697|-0.0184204,0.0276838,0.438352] cmatrix=[383.948|0,383.948|0,0,383.948]
new object=linecode.mtx607 nphases=1 basefreq=60 rmatrix=[1.3425] xmatrix=[0.5124] cmatrix=[236] units=mi
new object=loadshape.solar_634_shape npts=8760 interval=1 useactual=yes mult=[0.0,0.0,0.0,0.0,0.0,0.0,0.0,0.0,2.251409281371377,6.826004007644536,9.635571387693265,29.60903029483931,6.789964499373996,15.867074935379232,23.73761897684807,25.55655415897297,12.76919148916618,0.8464741648416733,0.0,0.0,0.0,0.0,0.0,0.0,0.0,0.0,0.0,0.0,0.0,0.0,0.0,0.0,5.9074508262617815,15.002732442907623,21.000130613340417,0.8286058372117419,45.07997349225328,16.11935149327301,58.533612785549046,40.25310220808635,21.252104318223523,1.818935182124898,0.0,0.0,0.0,0.0,0.0,0.0,0.0,0.0,0.0,0.0,0.0,0.0,0.0,0.0,17.325917887809407,40.39726024116851,53.67070199311157,22.746986778924235,40.45116807706897,40.34304955225736,32.95888744593547,28.61839809691548,15.020600770537555,1.1886980669064642,0.0,0.0,0.0,0.0,0.0,0.0,0.0,0.0,0.0,0.0,0.0,0.0,0.0,0.0,26.366988815544104,60.40675865658508,85.76524694657542,101.5962823736841,107.62972005238744,104.78411316406816,92.1769480356141,70.65439597885617,38.506246042502525,7.564359647674589,0.0,0.0,0.0,0.0,0.0,0.0,0.0,0.0,0.0,0.0,0.0,0.0,0.0,0.0,28.67230593281595,63.97285285730449,90.01548609841373,105.79261368962194,111.55590648280156,107.61154887174686,94.10400174255062,71.7352783739617,38.86633827219725,7.384162106321889,0.0,0.0,0.0,0.0,0.0,0.0,0.0,0.0,0.0,0.0,0.0,0.0,0.0,0.0,22.657039434753223,53.65283366548164,84.10803527215194,75.3731487382115,85.20678599488738,87.89036652249459,88.23259042455936,66.9444465980653,36.23666558049054,6.771793318733386,0.0,0.0,0.0,0.0,0.0,0.0,0.0,0.0,0.0,0.0,0.0,0.0,0.0,0.0,22.99926333681801,22.837236976105924,81.60465228589746,93.59975147977372,83.82032491200899,80.2539278582789,67.64676272982481,34.57975675907773,18.26233939682209,1.945224887577126,0.0,0.0,0.0,0.0,0.0,0.0,0.0,0.0,0.0,0.0,0.0,0.0,0.0,0.0,23.413566255423888,54.589558027505,14.408231982949056,18.982826709222213,42.48634030881711,49.22209411927996,40.32518122462743,26.13288343829093,13.867942211901632,1.6030009855123353,0.0,0.0,0.0,0.0,0.0,0.0,0.0,0.0,0.0,0.0,0.0,0.0,0.0,0.0,24.061671698272253,55.23766347035336,29.60903029483931,62.98222065938065,49.33021264409157,23.03530284508856,29.536951278298236,24.71007999413129,12.805230997436718,6.051608859343942,0.0,0.0,0.0,0.0,0.0,0.0,0.0,0.0,0.0,0.0,0.0,0.0,0.0,0.0,11.148322176023912,27.55568688245057,44.3955256881237,76.09363605061162,44.161420310870525,57.668967440066766,58.56965229381958,47.2590009040729,26.366988815544104,4.628805415184306,0.0,0.0,0.0,0.0,0.0,0.0,0.0,0.0,0.0,0.0,0.0,0.0,0.0,0.0,29.032701015521354,64.26086607045812,89.94370993488332,105.41435027928662,111.10556405592516,107.62972005238744,95.0585944322039,74.00455598296301,43.92731493361735,10.82426945459973,0.0,0.0,0.0,0.0,0.0,0.0,0.0,0.0,0.0,0.0,0.0,0.0,0.0,0.0,26.817331242420515,60.91100891936197,85.4769308804111,103.64932293306218,109.98894500555976,107.53946985520577,95.29269980945706,72.1492784395569,42.90064322742298,10.66224309388764,0.0,0.0,0.0,0.0,0.0,0.0,0.0,0.0,0.0,0.0,0.0,0.0,0.0,0.0,26.24100196310255,60.22656111523239,84.81065425692212,78.23692680717139,86.84582648867027,78.9755853002121,71.26676476644468,56.85853278349563,33.73328259423606,8.158557254622483,0.0,0.0,0.0,0.0,0.0,0.0,0.0,0.0,0.0,0.0,0.0,0.0,0.0,0.0,10.93238797941135,25.898778061037763,46.93494818264872,59.83042937726712,68.54744758357764,62.91014164283956,37.20942945078444,30.29347809896889,17.091812510556235,2.7916990524187995,0.0,0.0,0.0,0.0,0.0,0.0,0.0,0.0,0.0,0.0,0.0,0.0,0.0,0.0,5.763292793179622,15.47094319741397,71.86126522640325,89.58331485217792,103.4691253917095,102.64082240750842,91.69056610046714,71.59112034087954,41.72981348814645,10.554124569076018,0.0,0.0,0.0,0.0,0.0,0.0,0.0,0.0,0.0,0.0,0.0,0.0,0.0,0.0,23.863605829289625,55.4539005199766,78.21875562653078,66.1518802691241,77.75054487202442,101.2361901439894,61.18115380488568,27.95212147342651,15.65083788575599,2.8277385606893395,0.0,0.0,0.0,0.0,0.0,0.0,0.0,0.0,0.0,0.0,0.0,0.0,0.0,0.0,24.674040485860758,59.34404744212017,86.62958943904704,105.5763766399987,109.59281326759452,106.78324588754576,94.82448905495072,74.6169247705515,43.69320955636418,11.382427553277084,0.0,0.0,0.0,0.0,0.0,0.0,0.0,0.0,0.0,0.0,0.0,0.0,0.0,0.0,26.94331809486206,60.69477186973873,87.81828750595349,104.00941516275692,110.49319526833663,107.71997024956914,96.67946374534615,75.69750431264636,44.46760470466478,11.742822635982485,0.0,0.0,0.0,0.0,0.0,0.0,0.0,0.0,0.0,0.0,0.0,0.0,0.0,0.0,28.42033222793285,63.72057629941071,89.36738065556536,104.63995513098602,114.635618748374,111.70006451588372,99.27309692878234,75.93160968989953,46.71871113302548,12.805230997436718,0.0,0.0,0.0,0.0,0.0,0.0,0.0,0.0,0.0,0.0,0.0,0.0,0.0,0.0,27.89791078451536,62.22569383870999,87.00785284938236,101.88429558683777,107.44952251103476,104.22565221238014,92.91530367564415,73.26589748992228,44.3955256881237,11.940888504965114,0.0,0.0,0.0,0.0,0.0,0.0,0.0,0.0,0.0,0.0,0.0,0.0,0.0,0.0,7.186096237339258,17.99219451129838,27.249502488656315,15.560890541584978,45.11601300052382,12.030835849136126,12.553257292553615,0.1801975413526997,0.0,0.0,0.0,0.0,0.0,0.0,0.0,0.0,0.0,0.0,0.0,0.0,0.0,0.0,0.0,0.0,6.6279381386619045,19.469208644369164,55.0217292737408,58.76771816280221,110.94353769521304,108.5482732337702,51.29330585929863,44.50364421293532,25.88090973340783,5.74542446554969,0.0,0.0,0.0,0.0,0.0,0.0,0.0,0.0,0.0,0.0,0.0,0.0,0.0,0.0,7.492280631133509,19.433169136098623,22.584960418212145,56.21012448763658,118.59784468705868,116.59871196358104,104.06362585166804,82.14494205694488,49.56431802134474,14.048139753254333,0.0,0.0,0.0,0.0,0.0,0.0,0.0,0.0,0.0,0.0,0.0,0.0,0.0,0.0,29.71714881965093,65.43139295672398,91.18631583769026,106.62091667382302,113.05078894350228,110.31330057999465,98.80458332126533,78.32687415134238,49.06006775856787,14.372192474678515,0.0,0.0,0.0,0.0,0.0,0.0,0.0,0.0,0.0,0.0,0.0,0.0,0.0,0.0,28.312213703121227,62.53187823250424,86.98998452175243,101.95637460337883,108.0979308068938,105.14450824677358,94.41018613634486,75.33710922994096,47.09697454336081,13.88611339254224,0.0,0.0,0.0,0.0,0.0,0.0,0.0,0.0,0.0,0.0,0.0,0.0,0.0,0.0,18.78476084023958,43.06266958813507,49.63639703788583,73.68020040852815,82.48746881202035,79.04736146374252,71.96938375121488,52.93234635308151,32.41859767488804,9.257307977357936,0.0,0.0,0.0,0.0,0.0,0.0,0.0,0.0,0.0,0.0,0.0,0.0,0.0,0.0,22.332683860318365,52.17581953241085,50.55495021926858,93.90593587356798,99.0750310597997,71.87913355403319,9.977795289758056,69.88000083055559,41.27977391428072,11.616532930530257,0.0,0.0,0.0,0.0,0.0,0.0,0.0,0.0,0.0,0.0,0.0,0.0,0.0,0.0,6.321753744867652,10.17586115874069,15.34465349196174,23.71975064921814,18.73085300433911,13.003599719430028,13.183494407772052,5.11488449732058,2.629369838696032,0.0539078359004715,0.0,0.0,0.0,0.0,0.0,0.0,0.0,0.0,0.0,0.0,0.0,0.0,0.0,0.0,29.75318832792147,64.83719534977608,90.26776265630753,105.99067955860455,112.40238064764324,109.89899766138876,99.43512328949444,79.91170395621413,49.18635746402009,15.579061722225587,0.0,0.0,0.0,0.0,0.0,0.0,0.0,0.0,0.0,0.0,0.0,0.0,0.0,0.0,28.25830586722076,62.477970396603766,87.42215576798822,102.40671703025524,108.67426008621172,106.441021985481,95.85085790813444,61.52337770695047,40.93755001221592,15.47094319741397,0.0,0.0,0.0,0.0,0.0,0.0,0.0,0.0,0.0,0.0,0.0,0.0,0.0,0.0,8.825136731122134,27.06960780031429,46.08847401780705,46.6466321164844,60.010324065609154,56.6786380951536,51.167319006857085,36.8129948598085,22.584960418212145,6.483780105579744,0.0,0.0,0.0,0.0,0.0,0.0,0.0,0.0,0.0,0.0,0.0,0.0,0.0,0.0,29.735017147280864,65.35961679319357,92.62698760947984,108.51223372549966,115.21194802769196,113.2128153042144,101.68622971785514,81.96504736860285,51.041332154415535,17.037904674655763,0.0,0.0,0.0,0.0,0.0,0.0,0.0,0.0,0.0,0.0,0.0,0.0,0.0,0.0,29.843135672092487,63.63062895523969,88.26893278584059,103.43308588343896,109.61068159522443,107.91803611855175,97.72400377917047,79.10126929964298,51.02316097377492,17.361957396079948,0.0,0.0,0.0,0.0,0.0,0.0,0.0,0.0,0.0,0.0,0.0,0.0,0.0,0.0,29.62689862246924,25.700712192055125,60.28046895113286,74.90493798370515,85.4769308804111,83.7300747148273,72.13141011192697,20.657906711275626,14.930653426366543,9.85150558430583,0.0,0.0,0.0,0.0,0.0,0.0,0.0,0.0,0.0,0.0,0.0,0.0,0.0,0.0,0.0,22.891144812006395,61.7214435759331,86.55751042250596,112.78064405797858,112.69069671380754,103.25319119509692,83.96418009208047,52.98625418898199,18.64060280715742,0.0,0.0,0.0,0.0,0.0,0.0,0.0,0.0,0.0,0.0,0.0,0.0,0.0,0.0,21.396262351305683,57.05659865247825,85.35094402796955,114.00538163315557,96.33723984328137,108.29599667587642,106.31503513303944,82.57741615619138,31.91434741211116,15.52485103331444,0.0,0.0,0.0,0.0,0.0,0.0,0.0,0.0,0.0,0.0,0.0,0.0,0.0,0.0,15.74108808293768,20.8920120885288,15.74108808293768,23.71975064921814,15.70504857466714,65.57555098980615,59.72231085245551,43.35098565429939,15.056640278808098,2.071211740018678,0.0,0.0,0.0,0.0,0.0,0.0,0.0,0.0,0.0,0.0,0.0,0.0,0.0,0.0,1.170526886265856,7.564359647674589,11.832769980153492,42.34218227573496,50.96925313787445,23.73761897684807,34.3816908900951,14.984561262267018,9.095281616645844,17.127852018826776,0.0,0.0,0.0,0.0,0.0,0.0,0.0,0.0,0.0,0.0,0.0,0.0,0.0,0.0,7.456241122862968,7.096148893168246,27.51964737418003,53.904807370364736,49.4383311689032,61.84743042837466,67.59285489392435,81.51470494172645,52.69824097582834,18.91074769268113,0.0,0.0,0.0,0.0,0.0,0.0,0.0,0.0,0.0,0.0,0.0,0.0,0.0,0.0,5.979529842802861,15.182627131249648,28.402161047292235,105.77444250898132,39.69464125639831,39.47870705978575,44.80982860672957,33.715414266606125,0.8286058372117419,17.578194445703186,0.0,0.0,0.0,0.0,0.0,0.0,0.0,0.0,0.0,0.0,0.0,0.0,0.0,0.0,9.563492371152186,42.50451148945772,91.87046078880915,109.66489228413558,115.77040897938,115.21194802769196,104.69416581989717,85.22495717552799,55.16558445381227,20.80206474435779,0.0,0.0,0.0,0.0,0.0,0.0,0.0,0.0,0.0,0.0,0.0,0.0,0.0,3.0436727573019025,35.06613869422468,69.98842220837788,95.88689741640496,111.06952454765464,117.42762065380349,114.9778426504388,104.5318366061744,85.44089137214057,57.05659865247825,21.864473105812024,0.0,0.0,0.0,0.0,0.0,0.0,0.0,0.0,0.0,0.0,0.0,0.0,0.0,3.0978834462130505,33.80536161077714,67.44869686084219,91.78051344463816,106.62091667382302,112.9787099269612,111.26789326964791,104.63995513098602,82.91964005825616,55.05746592900066,21.19819648232305,0.0,0.0,0.0,0.0,0.0,0.0,0.0,0.0,0.0,0.0,0.0,0.0,0.0,3.908318102784184,35.53434944873102,70.00629053600782,97.45385889364675,109.25058936552972,115.23011920833258,96.80545059778773,91.79868462527875,70.36638276570254,55.562019044788215,11.994796340865587,0.0,0.0,0.0,0.0,0.0,0.0,0.0,0.0,0.0,0.0,0.0,0.0,0.0,0.0720790165410798,19.739353529892878,45.18778916405422,63.86473433249286,72.70773939124491,85.8191547824759,90.82592075498486,60.40675865658508,53.13041222206414,37.65946902465018,12.76919148916618,0.0,0.0,0.0,0.0,0.0,0.0,0.0,0.0,0.0,0.0,0.0,0.0,0.0,0.8646453454822818,31.80622888729954,63.77448413531117,89.36707780255468,104.9640078524102,111.44778795798996,109.73697130067666,100.06536040471283,80.88446782650801,51.76181946681566,20.009498415416584,0.0,0.0,0.0,0.0,0.0,0.0,0.0,0.0,0.0,0.0,0.0,0.0,0.0,0.0,4.73662108698525,6.717885482832916,21.30631500713467,29.807096163821942,31.78836055966961,38.48807486186192,24.512014125148664,21.27027549886413,22.638868254112616,8.41083381251626,0.0,0.0,0.0,0.0,0.0,0.0,0.0,0.0,0.0,0.0,0.0,0.0,0.0,0.0,0.5224214434174907,23.23336871407119,41.33368175018119,53.50867563239947,80.92050733477856,92.46496124876772,72.34734430853952,89.4933675080069,33.7693221025066,11.562625094629784,0.0,0.0,0.0,0.0,0.0,0.0,0.0,0.0,0.0,0.0,0.0,0.0,0.0,3.800199577972564,11.796730471882956,25.43056730653141,44.8276969343595,62.04549629735728,120.00277980358835,115.86035632355102,105.55850831236876,86.75557629148858,58.533612785549046,23.61163212440652,0.0,0.0,0.0,0.0,0.0,0.0,0.0,0.0,0.0,0.0,0.0,0.0,0.0,4.862910792437477,36.07463921977845,69.77188230574397,93.92380420119792,108.67426008621172,113.91513143597388,111.66402500761318,102.11870381710162,83.89210107553937,56.6786380951536,22.981092156177407,0.0,0.0,0.0,0.0,0.0,0.0,0.0,0.0,0.0,0.0,0.0,0.0,0.0,4.430436693190997,13.723784178819471,57.41699373518365,69.3939217484193,107.3235356585932,112.96084159933127,110.96170887585366,101.30826916053049,83.15374543550932,56.26433517654773,21.84660477818209,0.0,0.0,0.0,0.0,0.0,0.0,0.0,0.0,0.0,0.0,0.0,0.0,0.0,1.963093215207058,7.294214762150877,35.89474453143642,33.7693221025066,46.62876378885447,64.00858951256434,52.19399071305146,66.58435436837058,32.81472941285331,10.22976899464116,0.0178683276299315,0.0,0.0,0.0,0.0,0.0,0.0,0.0,0.0,0.0,0.0,0.0,0.0,0.0,0.0,0.9364215090126848,0.4682107545063424,5.637305940738071,36.56102115492539,25.376659470630944,58.55148111317897,63.52251043042808,42.05416906258132,4.6106342345436975,21.61249940092892,0.0,0.0,0.0,0.0,0.0,0.0,0.0,0.0,0.0,0.0,0.0,0.0,0.0,6.501648433209676,40.7394841432333,77.12030775680599,103.3070990309974,119.62451639325305,125.58587505541529,118.77834508142205,108.53040490614028,89.36738065556536,61.343180165597765,25.9348175693083,0.0,0.0,0.0,0.0,0.0,0.0,0.0,0.0,0.0,0.0,0.0,0.0,0.0,6.879911843545007,39.94691781429209,73.44609503127498,97.36360869646506,111.87995920422576,117.6792915056759,115.23011920833258,105.12633706613296,86.80978698039974,59.41612645866125,25.016264387925546,0.0,0.0,0.0,0.0,0.0,0.0,0.0,0.0,0.0,0.0,0.0,0.0,0.0,4.574594726273158,36.164889416960136,56.73254593105407,78.36291365961293,95.0585944322039,95.11250226810438,95.14854177637493,57.03873032484832,39.964786141922026,54.78732104347695,24.007763862371785,0.0,0.0,0.0,0.0,0.0,0.0,0.0,0.0,0.0,0.0,0.0,0.0,0.0,2.6115015110661,22.24273651614736,49.97862093995062,59.66840301655503,72.70773939124491,70.96058037265043,87.56631380107038,65.08947190766986,32.86894010176445,10.283979683552309,10.19372948637062,0.0,0.0,0.0,0.0,0.0,0.0,0.0,0.0,0.0,0.0,0.0,0.0,0.0,5.583095251826922,27.375792194108545,36.88507387634958,61.1090747883446,84.86486494583328,83.69403520655673,77.01218923199437,66.67430171254159,64.47710312008137,37.425363647397,8.680978698039974,0.0,0.0,0.0,0.0,0.0,0.0,0.0,0.0,0.0,0.0,0.0,0.0,0.0,2.9715937407608224,16.479443722967734,43.4409329984704,44.8276969343595,56.10230881583564,68.27730269805393,79.28146684099568,69.9881193553672,61.99158846145682,44.95368378680105,13.957889556072644,0.0,0.0,0.0,0.0,0.0,0.0,0.0,0.0,0.0,0.0,0.0,0.0,0.0,8.032570402180932,40.595326110151134,72.79768673541594,95.85085790813444,108.85445762756446,117.82375239176876,114.36547386285032,102.8930989654022,82.97354789415662,54.28307078070007,23.575592616135975,0.0,0.0,0.0,0.0,0.0,0.0,0.0,0.0,0.0,0.0,0.0,0.0,0.0,8.789097222851593,43.49484083437088,78.45316385679462,103.68536244133271,119.12026613047615,125.06375646500848,122.61428131465446,100.5517423398598,92.32110606869624,58.60569180209012,28.13201616176853,0.0,0.0,0.0,0.0,0.0,0.0,0.0,0.0,0.0,0.0,0.0,0.0,0.0,8.554991845598423,39.76672027293939,67.86299977944806,103.86555998268544,117.6792915056759,122.68636033119552,119.17417396637664,106.29686395239884,82.68553468100298,55.05746592900066,23.665539960306987,0.0,0.0,0.0,0.0,0.0,0.0,0.0,0.0,0.0,0.0,0.0,0.0,0.0,9.095281616645844,4.070344463496276,79.51557221824885,34.83203331697151,42.6483666695292,58.821625998702686,125.81998043266846,112.27639379520168,92.62729046249048,62.20782551108006,28.024200489967583,0.0,0.0,0.0,0.0,0.0,0.0,0.0,0.0,0.0,0.0,0.0,0.0,0.0,10.067742633929068,44.79165742608896,77.84049221619544,100.92970289718446,114.9778426504388,120.5248983939952,118.5621080317988,107.77387808546962,89.81742022943111,62.36985187179215,28.13201616176853,0.0,0.0,0.0,0.0,0.0,0.0,0.0,0.0,0.0,0.0,0.0,0.0,0.0,10.680111421517571,47.34925110125459,81.85692884379124,107.08943028134,122.18211006841868,127.98144236986884,125.04588813737853,114.05959232206672,91.56457924802558,64.09883970974603,29.35675373694553,1.4948824607007152,0.0,0.0,0.0,0.0,0.0,0.0,0.0,0.0,0.0,0.0,0.0,0.0,10.806098273959122,46.19659254261867,80.27209903891952,103.8473888020448,117.4091466201522,118.14780511319292,115.71650114347952,105.12633706613296,86.05326015972906,60.0645347545203,27.051436619673687,1.026671706194373,0.0,0.0,0.0,0.0,0.0,0.0,0.0,0.0,0.0,0.0,0.0,0.0,10.6262035856171,41.531747619163816,78.65092687276658,102.67686191577896,116.27465924215689,120.88529347670055,119.26442416355832,103.34344139227862,85.06293081481591,58.87583668761383,26.40302832381464,0.9185531813827532,0.0,0.0,0.0,0.0,0.0,0.0,0.0,0.0,0.0,0.0,0.0,0.0,11.148322176023912,45.6202632633007,78.23692680717139,102.1726116530021,116.14867238971532,122.30809692086022,120.21871400020092,109.73697130067666,91.33047387077242,61.7032723952925,28.13201616176853,1.6208693131422671,0.0,0.0,0.0,0.0,0.0,0.0,0.0,0.0,0.0,0.0,0.0,0.0,10.139821650470148,39.20856217426204,78.21905847954145,91.00611829633756,114.88789530626777,119.28229249118824,116.43668560286898,105.8468243785331,86.6117211114171,44.35948617985317,27.06960780031429,1.368895608259164,0.0,0.0,0.0,0.0,0.0,0.0,0.0,0.0,0.0,0.0,0.0,0.0,11.346388045006544,44.37735450748309,60.136310918050704,69.60985594503188,73.95064814706254,108.35020736478756,117.10296222635796,72.25739696436852,85.47723373342178,57.99332301450162,26.76342340652004,1.2247375751770042,0.0,0.0,0.0,0.0,0.0,0.0,0.0,0.0,0.0,0.0,0.0,0.0,9.671610895963806,34.70604646452996,66.92657827043537,99.5429389612954,114.13136848559712,90.98824996870762,99.48903112539487,85.98148399619866,78.14697946300036,56.73254593105407,27.141686816855376,1.5309219689712552,0.0,0.0,0.0,0.0,0.0,0.0,0.0,0.0,0.0,0.0,0.0,0.0,8.464741648416734,30.22139908242781,30.311346426598824,17.235970543638395,46.41252673923123,62.9461811511101,117.04905439045748,106.5491405102926,88.50273531008308,61.75748308420365,27.771923932073808,1.9991327234775975,0.0,0.0,0.0,0.0,0.0,0.0,0.0,0.0,0.0,0.0,0.0,0.0,13.09354706360104,47.52914578959661,79.33567752990683,76.92224188782336,115.78827730700992,120.0388193118589,118.21958127672332,108.22391765933536,90.12360462322536,63.25236554490436,28.906714163079798,2.3592249531723204,0.0,0.0,0.0,0.0,0.0,0.0,0.0,0.0,0.0,0.0,0.0,0.0,13.669876342919002,47.42133011779566,77.75054487202442,99.09259653441896,114.94180314216824,120.32683252501252,117.12113340699857,93.00525101981516,88.98911724523003,60.65873236146819,28.83463514653872,2.3413566255423888,0.0,0.0,0.0,0.0,0.0,0.0,0.0,0.0,0.0,0.0,0.0,0.0,13.489678801566305,46.538816444683455,68.04289446779008,73.69837158916876,94.50013348051588,105.34227126274554,94.17608075909168,91.58244757565552,78.14697946300036,38.39812751769091,18.40649742990425,0.9185531813827532,0.0,0.0,0.0,0.0,0.0,0.0,0.0,0.0,0.0,0.0,0.0,0.0,1.8731458710360465,7.816636205568368,12.355191423570986,23.287276549971654,12.481178276012535,8.284846960074711,28.42033222793285,39.37058853497413,2.9897649214014304,22.27877602441789,10.571992896705952,0.0178683276299315,0.0,0.0,0.0,0.0,0.0,0.0,0.0,0.0,0.0,0.0,0.0,0.0,7.456241122862968,23.19732920580065,37.11917925360275,34.77782262806036,52.049832679969306,42.34218227573496,39.820930961850536,43.47697250674094,41.89214270186921,12.931520702888946,5.979529842802861,0.0,0.0,0.0,0.0,0.0,0.0,0.0,0.0,0.0,0.0,0.0,0.0,0.0,2.215369773100837,9.383294829799487,35.03009918595414,50.73514776062129,85.6389572411232,117.53543632560442,94.91443639912174,92.24902705215516,86.26949720935231,37.65946902465018,18.082444708480068,1.0805795420948443,0.0,0.0,0.0,0.0,0.0,0.0,0.0,0.0,0.0,0.0,0.0,0.0,16.011232968461393,17.379825723709878,53.38268877995792,84.68466740448058,120.32683252501252,125.26182233399108,123.94713741464308,114.43755287939138,95.68883154742234,35.12004653012516,17.72204962577467,1.4588429524301756,0.0,0.0,0.0,0.0,0.0,0.0,0.0,0.0,0.0,0.0,0.0,0.0,19.090945234033832,57.795257145519,91.54640806738496,115.59021143802728,128.84578486234042,133.36647175271312,131.07932581608188,118.8322529173225,98.51657010811168,69.26763204296708,32.41859767488804,3.530054692448853,0.0,0.0,0.0,0.0,0.0,0.0,0.0,0.0,0.0,0.0,0.0,0.0,18.856839856780663,55.72404540550031,87.04389235765291,108.42198352831798,120.27292468911207,123.56887400430776,122.650320822925,110.5655771378884,91.20418416532016,64.3147739063586,31.24807078862219,3.368028331736762,0.0,0.0,0.0,0.0,0.0,0.0,0.0,0.0,0.0,0.0,0.0,0.0,18.62273447952749,54.15708392825852,84.27036448587471,109.39474739861188,122.25388623194904,67.57468371328375,125.22578282572056,113.62711822282024,94.93260757976236,65.26936659601188,31.986426428652244,4.016436627595804,0.0,0.0,0.0,0.0,0.0,0.0,0.0,0.0,0.0,0.0,0.0,0.0,18.352589594003778,53.20249123860522,83.7300747148273,105.36044244338612,56.60655907861253,96.37327935155191,98.13830669777631,73.82435844161031,47.15118523227196,36.68700800736696,18.10031303611,1.7111195103239554,0.0,0.0,0.0,0.0,0.0,0.0,0.0,0.0,0.0,0.0,0.0,0.0,2.0351722317481378,4.502515709732078,4.93468695596788,16.713549100220902,37.15521876187329,50.95138481024452,65.5395114815356,51.70760877790451,51.167319006857085,24.260040420265565,12.174993882218288,0.7743951483005934,0.0,0.0,0.0,0.0,0.0,0.0,0.0,0.0,0.0,0.0,0.0,0.0,0.7925663289412017,3.404067840007301,12.751323161536249,19.793261365793345,20.49588035056354,21.90051261408256,15.056640278808098,17.001865166385222,14.642337360202228,7.996530893910391,3.692081053160945,0.0,0.0,0.0,0.0,0.0,0.0,0.0,0.0,0.0,0.0,0.0,0.0,0.0,0.342223902064791,0.3240527214241826,5.709384957279151,9.617400207052658,17.055773002285697,12.247072898759368,14.624469032572296,8.789097222851593,17.938286675397908,14.858574409825463,7.186096237339258,0.1801975413526997,0.0,0.0,0.0,0.0,0.0,0.0,0.0,0.0,0.0,0.0,0.0,0.0,19.505248152639705,53.22066241924583,81.94687618796226,102.0823614558204,64.09883970974603,55.48994002824714,74.36464821265773,58.425494260737416,92.46496124876772,30.455504459680984,31.427965476964207,4.214502496578435,0.0,0.0,0.0,0.0,0.0,0.0,0.0,0.0,0.0,0.0,0.0,0.0,5.421068891114831,26.619265373437884,53.50867563239947,61.343180165597765,53.54471514067001,58.40762593310749,68.65526325537859,58.9297445235143,79.02949313611258,45.24199985296537,23.19732920580065,3.2238702986546017,0.0,0.0,0.0,0.0,0.0,0.0,0.0,0.0,0.0,0.0,0.0,0.0,21.61249940092892,56.42636153725982,77.17421559270646,90.46613137830082,105.72053467308086,110.63735330141884,106.2250877888684,96.66159541771624,78.90320343066035,46.46673742814238,23.665539960306987,3.4579756759077727,0.0,0.0,0.0,0.0,0.0,0.0,0.0,0.0,0.0,0.0,0.0,0.0,20.90988041615873,48.46587015161997,61.19902213251561,68.85363197737189,72.22135745609798,80.32600687481998,97.0577271556815,82.45142930374982,47.6193959867783,26.295212652013696,13.0575075553305,1.3867639358890955,0.0,0.0,0.0,0.0,0.0,0.0,0.0,0.0,0.0,0.0,0.0,0.0,10.320019191822848,25.106514585107234,39.73068076466885,106.67512736273416,117.89552855529917,123.08249206916082,119.71446373742404,109.88112933375884,91.45646072321397,63.01826016765119,15.07450860643803,4.430436693190997,0.0,0.0,0.0,0.0,0.0,0.0,0.0,0.0,0.0,0.0,0.0,0.0,21.70244674509993,54.19312343652906,50.2308974978444,70.07836955254889,89.92553875424271,117.71533101394644,113.95147379725508,103.90159949095596,86.7919186527698,61.7214435759331,17.97432618366845,2.57546200279556,0.0,0.0,0.0,0.0,0.0,0.0,0.0,0.0,0.0,0.0,0.0,0.0,3.692081053160945,18.74872133196904,32.74265039631223,35.678507481813185,52.55408294274618,75.82349116508792,83.09983759960885,80.66823077688477,91.45646072321397,43.02663007986453,13.993929064343185,1.8371063627655064,0.0,0.0,0.0,0.0,0.0,0.0,0.0,0.0,0.0,0.0,0.0,0.0,24.296079928536106,60.85679823045082,91.6726977728372,113.10469677940276,125.49592771124428,130.28675948714067,126.86482331950344,115.59021143802728,96.64342423707564,68.85363197737189,34.273572365283485,5.11488449732058,0.0,0.0,0.0,0.0,0.0,0.0,0.0,0.0,0.0,0.0,0.0,0.2522765578937795,24.818198518942918,59.18202108140808,88.91703822868895,106.71116687100468,119.10209494983552,123.71303203738994,124.93776961256692,109.79087913657712,91.43859239558402,65.19728757947081,33.211164003829246,5.29508203867328,0.0,0.0,0.0,0.0,0.0,0.0,0.0,0.0,0.0,0.0,0.0,0.9185531813827532,25.989028258219445,60.98308793590305,90.17751245912582,110.5474059572478,121.69572813327171,125.09979597327902,122.1100310518776,111.9523410737775,94.21212026736222,67.52077587738327,34.687875283889355,5.637305940738071,0.0,0.0,0.0,0.0,0.0,0.0,0.0,0.0,0.0,0.0,0.0,0.6662766234889737,22.42293405750005,43.27890663775831,65.32327443191237,73.44609503127498,91.36651337904296,78.47103218442454,103.00091463720314,55.90394009384234,58.44366544137803,63.828694824222325,31.283807443882047,5.097016169690647,0.0,0.0,0.0,0.0,0.0,0.0,0.0,0.0,0.0,0.0,0.0,0.0,20.74785405544664,32.022465936922785,29.78922783619201,32.922847937664926,52.28393805722247,68.18705250087224,40.63136561842168,38.091943123896655,39.13648315772096,24.296079928536106,7.366293778691958,3.0076332490313624,0.0,0.0,0.0,0.0,0.0,0.0,0.0,0.0,0.0,0.0,0.0,0.0,8.32088646834525,24.87240920785406,23.575592616135975,112.45628848354367,127.90936335332776,133.5106297857953,126.7206652864213,116.36490943933858,97.56197741845835,69.75401397811405,34.48980941490672,5.655174268368001,0.0,0.0,0.0,0.0,0.0,0.0,0.0,0.0,0.0,0.0,0.0,2.0351722317481378,28.69047711345656,66.11614361386424,98.85849115716576,121.06549101805328,134.15873522864365,138.2475537257912,133.81681417958953,121.28172806767653,98.39058325567014,52.03196435233937,28.456371736203387,6.087345514603805,0.0,0.0,0.0,0.0,0.0,0.0,0.0,0.0,0.0,0.0,0.0,2.125119575919149,28.78042445762757,64.98135338285825,95.47289735080976,116.1126328814448,128.23341607475194,132.1235629968955,128.10742922231037,116.67109383313284,97.27396420530474,67.75488125463644,35.19212554666623,6.249674728326573,0.0,0.0,0.0,0.0,0.0,0.0,0.0,0.0,0.0,0.0,0.0,2.50338298625448,29.590859114198704,65.30540610428243,93.76177784048582,113.1589074683139,124.09099259471456,127.40511309055086,123.40684764359568,112.67252553316696,94.82448905495072,68.13314466497177,35.24633623557738,6.087345514603805,0.0,0.0,0.0,0.0,0.0,0.0,0.0,0.0,0.0,0.0,0.0,2.68358052760718,29.05056934315128,64.3329450869992,93.54554079086256,113.28489432075546,109.01648398827652,129.40424581402846,125.85632279394969,115.21225088070264,96.66159541771624,67.50260469674267,35.01223085832421,6.159424531144886,0.0,0.0,0.0,0.0,0.0,0.0,0.0,0.0,0.0,0.0,0.0,2.845606888319271,28.13201616176853,62.02762796972736,63.55854993869862,57.03873032484832,64.17091872628711,28.852503474168653,90.01548609841373,112.31243330347225,92.64515879012043,65.73757735051824,33.012795281835935,6.267543055956505,0.0,0.0,0.0,0.0,0.0,0.0,0.0,0.0,0.0,0.0,0.0,2.75565954414826,27.303713177567463,39.37058853497413,70.3485144380726,108.78237861102336,93.54554079086256,125.11766430090894,121.22751737876538,111.41205130273008,94.03192272600953,68.02502614016015,34.70604646452996,6.357793253138192,0.0,0.0,0.0,0.0,0.0,0.0,0.0,0.0,0.0,0.0,0.0,3.2056991180139938,27.79009511271441,59.77621868835598,71.19498860291428,86.59354993077649,38.01986410735557,81.83875766315063,103.52333608062062,86.71983963622873,50.465002875097575,32.74265039631223,15.308916836701878,5.8532401373506335,0.0,0.0,0.0,0.0,0.0,0.0,0.0,0.0,0.0,0.0,0.0,2.68358052760718,4.718752759355318,18.96495838159228,24.674040485860758,30.509412295581456,58.047230850402094,86.03508897908846,51.05920048204546,48.0515672330141,29.014529834880744,24.260040420265565,14.624469032572296,6.357793253138192,0.0,0.0,0.0,0.0,0.0,0.0,0.0,0.0,0.0,0.0,0.0,1.7289878379538863,9.92358460084691,63.72057629941071,67.77274958226637,80.65005959624416,85.58504940522273,80.72244146579592,90.84409193562549,81.1367443844018,75.94978087054014,52.59012245101672,33.89530895494815,6.898083024185615,0.0,0.0,0.0,0.0,0.0,0.0,0.0,0.0,0.0,0.0,0.0,0.1801975413526997,1.6750800020534151,6.807832827003926,10.499913880164872,10.8781772905002,17.361957396079948,21.43230185957622,49.97862093995062,44.0351306054183,33.37319036454134,21.59432822028831,6.177595711785493,0.0,0.0,0.0,0.0,0.0,0.0,0.0,0.0,0.0,0.0,0.0,0.0,4.358357676649918,31.86013672320001,66.65613053190098,92.84322465910309,111.14160356419568,122.07399154360704,125.5140988918849,121.8759256746244,112.1143674344896,94.14004125082116,68.43932905876602,36.27270508876108,7.024069876627166,0.0,0.0,0.0,0.0,0.0,0.0,0.0,0.0,0.0,0.0,0.0,4.73662108698525,31.87830790384062,64.63912948079346,90.95221046043709,109.3044972014302,99.61532083084714,124.55950620223156,119.82288511524636,109.93503716965932,91.87076364181983,20.63973553063502,35.73241531771366,7.312083089780809,0.0,0.0,0.0,0.0,0.0,0.0,0.0,0.0,0.0,0.0,0.0,4.862910792437477,32.94101911830553,68.6916056166598,97.86816181225262,118.05755491601124,129.71043020782272,133.02424785064835,113.95147379725508,90.21385482040704,99.52507063366544,71.19498860291428,30.815596689375703,7.330254270421417,0.0,0.0,0.0,0.0,0.0,0.0,0.0,0.0,0.0,0.0,0.0,5.11488449732058,33.211164003829246,68.60135541947811,97.52593791018784,117.64325199740536,129.4941931581995,132.97034001474788,129.53023266647003,118.30983147390502,99.20101791224126,71.68106768505056,22.837236976105924,7.474412303503577,0.0,0.0,0.0,0.0,0.0,0.0,0.0,0.0,0.0,0.0,0.0,5.3311215469438205,33.3371508562708,66.18791977739464,95.74304223633348,115.4100138966746,126.77457312232175,130.0526541098875,126.414480892627,115.04992166697988,65.0173928911288,67.95294712361907,35.93048118669629,7.996530893910391,0.0,0.0,0.0,0.0,0.0,0.0,0.0,0.0,0.0,0.0,0.0,5.619134760097462,33.553387905894034,66.40415682701789,92.82535633147312,110.9795772034836,121.31746472293638,124.23515062779674,108.2781283482465,111.3218011055484,93.18544856116786,68.16918417324231,37.08313974533221,8.17672843526309,0.0,0.0,0.0,0.0,0.0,0.0,0.0,0.0,0.0,0.0,0.0,5.74542446554969,34.29174354592409,67.14251246704794,95.83298958050447,114.79764510908608,125.47775653060368,129.27795610857623,125.80211210503852,87.71047183415254,97.29183253293466,70.38425109333247,37.02923190943174,8.014702074550998,0.0,0.0,0.0,0.0,0.0,0.0,0.0,0.0,0.0,0.0,0.0,3.025804429671971,12.661375817365238,40.88333932330477,69.91604033882614,88.01635337493613,93.94197538183852,98.85849115716576,117.91339688292908,107.37774634750431,89.96157826251326,65.35961679319357,34.92198066114252,7.816636205568368,0.0,0.0,0.0,0.0,0.0,0.0,0.0,0.0,0.0,0.0,0.0,5.8532401373506335,22.76515795956484,49.34838382473218,67.48473636911272,64.02676069320495,110.7993796621309,56.750414258684,107.48556201930528,69.4660007649604,63.828694824222325,37.26333728668491,19.414997955458016,6.249674728326573,0.0,0.0,0.0,0.0,0.0,0.0,0.0,0.0,0.0,0.0,0.0,1.7468561655838182,11.238572373205605,53.54471514067001,39.58682558459736,77.15634726507652,89.70960455763014,91.4746319038546,43.98122276951783,43.15261693230609,43.22469594884716,31.229899607981583,17.776260314685818,5.29508203867328,0.0,0.0,0.0,0.0,0.0,0.0,0.0,0.0,0.0,0.0,0.0,6.231503547685964,16.4615753953378,47.49340913433674,65.91807774488161,43.63899886745303,99.3088335840422,105.25232391857452,81.42475759755544,71.51904132433846,46.95281651027865,32.886808429394385,16.857707133303062,5.583095251826922,0.0,0.0,0.0,0.0,0.0,0.0,0.0,0.0,0.0,0.0,0.0,0.1801975413526997,16.76775978913205,3.980397119325264,6.123385022874345,23.52138192722483,47.47523795369614,61.25292996841608,48.42983064334944,43.56691985091196,49.56431802134474,40.19919437218587,22.801197467835383,6.555859122120824,0.0,0.0,0.0,0.0,0.0,0.0,0.0,0.0,0.0,0.0,0.0,0.0,20.153656448498747,21.30631500713467,20.423801334022457,80.32600687481998,67.77274958226637,39.78489145358,50.716976579980674,33.12091380664756,28.978490326610203,27.12351563621477,6.898083024185615,3.782028397331956,0.0,0.0,0.0,0.0,0.0,0.0,0.0,0.0,0.0,0.0,0.0,1.782895673854358,5.47527958002598,13.543889490477447,50.91534530197398,115.28402704423306,124.8114799071147,128.3775741078341,110.25908989108348,115.53630360212684,97.56197741845835,69.51990860086086,38.001692926714966,8.627070862139501,0.0,0.0,0.0,0.0,0.0,0.0,0.0,0.0,0.0,0.0,0.0,6.988030368356627,36.36295528594277,68.69130276364912,93.63579098804423,110.9795772034836,120.83108278778944,123.37080813532512,119.30046367182888,109.0525234965471,91.72660560873769,67.214591483589,36.66913967973702,8.17672843526309,0.0,0.0,0.0,0.0,0.0,0.0,0.0,0.0,0.0,0.0,0.0,6.951990860086086,35.9486523673369,67.75488125463644,92.06882951080247,108.49406254485906,117.91339688292908,120.4531222304648,117.28315976771064,107.91803611855175,91.3843817066729,67.37661784430111,37.10131092597282,8.464741648416734,0.0,0.0,0.0,0.0,0.0,0.0,0.0,0.0,0.0,0.0,0.0,7.438372795233037,36.27270508876108,68.43902620575534,93.34747492187994,110.61948497378889,120.27292468911207,122.84838669190763,124.50529551332043,109.57494493996458,93.1315407252674,68.85363197737189,37.94778509081449,8.789097222851593,0.0,0.0,0.0,0.0,0.0,0.0,0.0,0.0,0.0,0.0,0.0,7.582227975304521,36.07463921977845,67.5386442050132,91.72660560873769,109.03435231590647,118.34587098217554,120.77717495188897,109.1606420213587,107.50373319994593,90.80805242735492,66.4941041711889,36.75908702390803,8.987163091834224,0.0,0.0,0.0,0.0,0.0,0.0,0.0,0.0,0.0,0.0,0.0,7.6543069918456,35.876573350795816,65.16124807120026,94.04979105363948,111.42991963036002,108.17000982343488,124.99198030147808,120.92133298497112,110.38537959653571,93.4916329549621,66.74638072908267,36.939284565260735,9.041070927734696,0.0,0.0,0.0,0.0,0.0,0.0,0.0,0.0,0.0,0.0,0.0,6.988030368356627,30.25743859069836,57.0926381607488,81.58678395826753,58.60569180209012,62.96404947874004,108.42198352831798,106.78324588754576,97.99414866469418,72.36551548918014,65.77361685878877,32.34651865834696,9.239439649728004,0.0,0.0,0.0,0.0,0.0,0.0,0.0,0.0,0.0,0.0,0.0,8.482912829057343,32.09454495346386,53.05833320552306,72.6716998829744,74.90493798370515,90.97038164107768,101.434256012972,96.265463679751,76.75991267410059,44.48547303229471,32.23840013353534,23.08921068098903,6.663674793921767,0.0,0.0,0.0,0.0,0.0,0.0,0.0,0.0,0.0,0.0,0.0,1.9991327234775975,23.08921068098903,42.81069588325197,57.34491471864258,81.4786654334559,86.19741819281123,96.58951640117516,114.1135001579672,103.325270211638,87.20591871836498,63.75661580768124,34.94015184178313,9.653439715323197,0.0,0.0,0.0,0.0,0.0,0.0,0.0,0.0,0.0,0.0,0.0,6.411701089038664,20.153656448498747,41.89214270186921,60.1544820986913,55.832163930311935,57.83129665378953,86.39548406179387,82.5053371396503,93.36534324950988,75.33710922994096,64.69303731669392,35.98469187560744,9.99566361738799,0.0,0.0,0.0,0.0,0.0,0.0,0.0,0.0,0.0,0.0,0.0,8.680978698039974,35.84053384252528,67.10647295877739,92.2850665604257,86.14320750390009,115.84248799592108,118.0935944242818,114.34760553522035,104.31590240956184,45.78228962401279,65.55768266217622,36.20062607222,9.88754509257637,0.0,0.0,0.0,0.0,0.0,0.0,0.0,0.0,0.0,0.0,0.0,8.428702140146193,35.516481121101094,66.16974859675403,54.39118930551168,93.02311934744507,119.33650318009938,122.29022859323028,114.27552651867929,89.33134114729482,70.20435640499045,52.91447802545157,28.65443760518601,7.510451811774117,0.0,0.0,0.0,0.0,0.0,0.0,0.0,0.0,0.0,0.0,0.0,5.169095186231729,1.368895608259164,19.34322179192761,38.091640270885975,86.14351035691075,58.67777081863121,51.11341117095661,78.79508490584873,79.71363808723149,41.51387929153389,28.1141478341386,20.04553792368712,10.4460060442644,0.0,0.0,0.0,0.0,0.0,0.0,0.0,0.0,0.0,0.0,0.0,9.383294829799487,40.16315486391534,74.56271408164037,100.85792673365408,118.85012124495243,128.93573220651146,131.09719414371182,126.27032285954486,115.4281850773152,97.41781938537622,72.0775022760265,39.4244963708746,10.571992896705952,0.0,0.0,0.0,0.0,0.0,0.0,0.0,0.0,0.0,0.0,0.0,9.401466010440094,38.63223289494408,69.42996125668985,93.8156856763863,110.20518205518302,119.39041101599986,121.82171498571329,118.90433193386356,108.31416785651705,92.21298754388464,68.1510129926017,38.54198269776239,10.535953388435413,0.0,0.0,0.0,0.0,0.0,0.0,0.0,0.0,0.0,0.0,0.0,5.3311215469438205,38.0377324349855,68.60135541947811,92.82535633147312,109.80874746420707,119.21021347464716,121.64182029737124,85.62108891349325,109.0525234965471,91.76264511700823,67.86299977944806,38.14585095979713,10.392098208363928,0.0,0.0,0.0,0.0,0.0,0.0,0.0,0.0,0.0,0.0,0.0,9.383294829799487,36.8129948598085,66.4941041711889,89.96157826251326,106.24295611649836,115.30189537186298,117.73350219458705,101.84855893157793,106.27899562476888,21.88264428645263,34.43590157900625,37.83966656600288,11.112282667753371,0.0,0.0,0.0,0.0,0.0,0.0,0.0,0.0,0.0,0.0,0.0,9.815768929045966,30.095412229986263,65.75574853115884,88.93490655631888,104.83832385297931,113.91513143597388,100.98391358609562,76.88620237955281,29.75318832792147,80.11007267820742,51.97775366342822,37.31754797559606,11.328519717376611,0.0,0.0,0.0,0.0,0.0,0.0,0.0,0.0,0.0,0.0,0.0,9.725518731864277,36.164889416960136,65.5395114815356,88.91703822868895,105.25232391857452,114.50963189593246,63.828694824222325,115.64442212693844,104.460060442644,88.59298550726477,65.55768266217622,31.91434741211116,11.058374831852902,0.0,0.0,0.0,0.0,0.0,0.0,0.0,0.0,0.0,0.0,0.0,9.599531879422727,36.88507387634958,67.97111830425968,92.48313242940834,109.43078690688245,119.12026613047615,121.82171498571329,118.8322529173225,108.83658929993452,91.94284265836092,66.1518802691241,38.001692926714966,11.148322176023912,0.0,0.0,0.0,0.0,0.0,0.0,0.0,0.0,0.0,0.0,0.0,9.707650404234348,36.47107381075438,65.59372217044675,91.54671092039564,109.26845769315965,118.85012124495243,121.44375442838862,117.96760757184023,107.89986493791116,88.35857727700092,65.30540610428243,37.65946902465018,11.238572373205605,0.0,0.0,0.0,0.0,0.0,0.0,0.0,0.0,0.0,0.0,0.0,6.051608859343942,35.264204563207315,59.77621868835598,80.1639805141079,104.47792877027392,105.3244029351156,96.39145053219252,106.33320631368004,90.0875651149548,80.41625707200167,58.46153376900796,37.06527141770228,11.382427553277084,0.0,0.0,0.0,0.0,0.0,0.0,0.0,0.0,0.0,0.0,0.0,9.941755781487515,30.83376787001632,64.54918213662245,87.08023471893412,102.62295407987848,111.2497220890073,114.23948701040877,111.28576159727788,61.41525918213885,71.51904132433846,63.84656315185226,31.01366255835834,11.868809488424034,0.0,0.0,0.0,0.0,0.0,0.0,0.0,0.0,0.0,0.0,0.0,10.211900667011228,35.44440210456001,63.43226023324639,86.03539183209915,101.99241411164935,111.08769572829524,114.16740799386766,110.85359035104206,101.18197945507823,74.67083260645198,59.14598157313754,28.33038488376184,10.73401925741804,0.0,0.0,0.0,0.0,0.0,0.0,0.0,0.0,0.0,0.0,0.0,8.770926042210984,36.14671823631953,56.71467760342414,73.96851647469246,92.86139583974368,80.03799366166633,83.42389032103303,88.84495921214787,79.08340097201304,78.32687415134238,57.72317812897792,22.531052582311677,11.040203651212291,0.0,0.0,0.0,0.0,0.0,0.0,0.0,0.0,0.0,0.0,0.0,8.39296548488633,34.5437172508072,55.95815078275348,76.27383359196432,93.0412905280857,100.73193988121253,108.53040490614028,101.34400581579033,92.75327731493203,89.61935436044845,66.99835443396577,39.02836463290934,11.076243159482834,0.0,0.0,0.0,0.0,0.0,0.0,0.0,0.0,0.0,0.0,0.0,9.221268469087397,28.27617419485069,56.03022979929457,75.91343850925892,88.39461678527145,96.46352954873362,103.73957313024388,97.18371400812306,95.83298958050447,78.72330874231834,51.92384582752775,34.670006956259414,11.274611881476142,0.0,0.0,0.0,0.0,0.0,0.0,0.0,0.0,0.0,0.0,0.0,9.239439649728004,34.83203331697151,50.2308974978444,74.25652968784611,83.91027225617998,72.23952863673858,38.379956337050295,69.77218515875464,87.54844547344047,70.40242227397307,55.05746592900066,34.45376990663618,11.436638242188232,0.0,0.0,0.0,0.0,0.0,0.0,0.0,0.0,0.0,0.0,0.0,9.545624043522254,33.9495196438593,59.99245573797921,75.31924090231102,92.55490859293874,96.5356085652747,104.63995513098602,94.2660281032627,83.53200884584466,66.81845974562376,52.69824097582834,33.5891245611539,4.556726398643226,0.0,0.0,0.0,0.0,0.0,0.0,0.0,0.0,0.0,0.0,0.0,8.717018206310513,36.38082361357269,64.89110318567656,87.47636645689938,103.0551253261143,111.89813038486636,114.4554212070213,111.48413031927116,102.2807301778137,87.29616891554667,65.5395114815356,38.43416702596144,12.337020242930375,0.0,0.0,0.0,0.0,0.0,0.0,0.0,0.0,0.0,0.0,0.0,8.951123583563684,36.164889416960136,63.954681676663874,86.46756307833493,102.100532636461,110.76334015386036,53.995057567546425,61.55941721522101,76.41799162504647,86.32340504525277,64.02676069320495,37.713679713561326,11.454506569818165,0.0,0.0,0.0,0.0,0.0,0.0,0.0,0.0,0.0,0.0,0.0,10.48204555253494,19.77539303816341,62.54974656013417,84.63045671556944,100.22768961843562,84.66649622383997,79.01132195547197,49.42046284127326,11.940888504965114,40.18102319154527,44.215328146771,31.21203128035165,11.688611947071337,0.0,0.0,0.0,0.0,0.0,0.0,0.0,0.0,0.0,0.0,0.0,9.635571387693265,37.10131092597282,66.89023590915416,90.46582852529014,106.90923273998736,116.31069875042742,119.10239780284624,99.79521551918914,107.70179906892854,91.18631583769026,68.61922374710804,40.45116807706897,12.481178276012535,0.0,0.0,0.0,0.0,0.0,0.0,0.0,0.0,0.0,0.0,0.0,10.085913814569675,35.82266551489535,63.48647092215752,85.56718107759279,101.09203211090724,109.89899766138876,112.96084159933127,110.47532694070672,101.63232188195468,86.75587914449926,47.63726431440823,32.49067669142912,12.931520702888946,0.0,0.0,0.0,0.0,0.0,0.0,0.0,0.0,0.0,0.0,0.0,9.85150558430583,36.290876269401686,41.11744470055795,86.93607668585196,56.51630888143084,112.33030163110216,113.50113137037869,86.6117211114171,102.31676968608424,87.06176068528282,66.04376174431249,39.28064119080312,12.751323161536249,0.0,0.0,0.0,0.0,0.0,0.0,0.0,0.0,0.0,0.0,0.0,9.85150558430583,35.91261285906636,63.8826026601228,86.46756307833493,101.07386093026662,82.88360054998562,114.25735533803868,110.11493185800131,101.39821650470148,86.62958943904704,65.10734023529979,38.93841728873833,13.111415391230972,0.0,0.0,0.0,0.0,0.0,0.0,0.0,0.0,0.0,0.0,0.0,10.17586115874069,25.700712192055125,63.23419436426374,84.97268061763423,100.11926824061332,109.03435231590647,111.70006451588372,108.33233903715764,99.651057486107,62.71207577385694,44.44943352402417,37.02923190943174,12.030835849136126,0.0,0.0,0.0,0.0,0.0,0.0,0.0,0.0,0.0,0.0,0.0,10.17586115874069,35.37232308801893,62.53187823250424,84.84669376519268,100.49753165094866,59.72231085245551,79.74967759550202,17.506115429162104,96.37327935155191,86.21558937345183,67.16068364768854,39.98295732256263,12.391230931841523,0.0,0.0,0.0,0.0,0.0,0.0,0.0,0.0,0.0,0.0,0.0,9.959624109117447,35.516481121101094,63.702405118770095,86.071128487359,101.97454578401944,76.81412336301175,115.30189537186298,91.45646072321397,43.4409329984704,4.628805415184306,7.077977712527637,6.537687941480216,3.836239086243104,0.0,0.0,0.0,0.0,0.0,0.0,0.0,0.0,0.0,0.0,0.0,9.959624109117447,35.552520629371635,62.91014164283956,85.45906255278118,101.34400581579033,95.11250226810438,49.4383311689032,73.96851647469246,102.91096729303212,86.80978698039974,65.68366951461776,33.89530895494815,13.795863195360552,0.0,0.0,0.0,0.0,0.0,0.0,0.0,0.0,0.0,0.0,0.0,5.673345449008611,34.77782262806036,61.81139092010412,68.27730269805393,100.37184765151778,70.54658030705524,44.41339401575363,67.07043345050685,85.6571284217638,56.71467760342414,15.52485103331444,0.9906321979238332,12.76919148916618,0.0,0.0,0.0,0.0,0.0,0.0,0.0,0.0,0.0,0.0,0.0,9.959624109117447,35.138217710765765,63.07216800355165,85.99904947081792,100.4254526344076,78.8671639223898,56.26433517654773,83.11770592723879,86.84582648867027,86.8818659969408,63.72057629941071,16.893746641573603,7.672478172486208,0.0,0.0,0.0,0.0,0.0,0.0,0.0,0.0,0.0,0.0,0.0,9.941755781487515,35.24633623557738,62.82019429866856,85.36881235559949,101.2361901439894,73.8964374581514,25.700712192055125,98.51657010811168,89.25926213075374,65.21545876011142,7.72638600838668,13.543889490477447,9.797597748405355,0.0,0.0,0.0,0.0,0.0,0.0,0.0,0.0,0.0,0.0,0.0,6.141556203514952,22.224868188517423,18.55065546298641,20.189695956769285,33.5891245611539,47.799290675120325,92.46526410177842,81.11857320376119,24.566224814059808,4.6827132510847775,20.92805159679934,15.182627131249648,9.149189452546317,0.0,0.0,0.0,0.0,0.0,0.0,0.0,0.0,0.0,0.0,0.0,9.689479223593738,35.19212554666623,62.9461811511101,85.92727330728752,100.1013999129834,89.79955190180117,112.85272307451964,109.41291857925248,100.49753165094866,85.99935232382859,66.72820954844207,40.25310220808635,13.20166558841266,0.1259868524415514,0.0,0.0,0.0,0.0,0.0,0.0,0.0,0.0,0.0,0.0,8.518952337327882,35.19212554666623,64.02676069320495,87.47606360388869,104.4418892620034,83.2258244520504,104.1896127041096,79.85779612031365,93.92410705420858,84.03625910862154,67.66493391046544,39.85697047012108,14.606297851931686,0.1259868524415514,0.0,0.0,0.0,0.0,0.0,0.0,0.0,0.0,0.0,0.0,7.924451877369311,34.95802016941307,62.351983544162216,78.61519021750671,100.17347892952448,96.69733207297612,92.64515879012043,103.61358627780233,71.26676476644468,74.41885890156888,66.71034122081214,40.57715492951053,13.183494407772052,0.1441580330821597,0.0,0.0,0.0,0.0,0.0,0.0,0.0,0.0,0.0,0.0,9.455373846340567,36.23666558049054,64.9453138745877,87.3861162597177,93.36564610252054,98.33637256675898,120.59697741053624,116.56267245531052,107.5576410358464,92.46496124876772,68.34907886158433,41.58595830807496,12.949389030518882,0.2701448855237111,0.0,0.0,0.0,0.0,0.0,0.0,0.0,0.0,0.0,0.0,8.284846960074711,29.266806392774523,52.77031999236942,76.5978863133885,90.14177580386595,98.12043837014642,103.64932293306218,110.47532694070672,101.25405847161932,86.95394501348188,66.2421304663058,40.30701004398682,13.36369194912475,0.1081185248116198,0.0,0.0,0.0,0.0,0.0,0.0,0.0,0.0,0.0,0.0,8.789097222851593,32.472505510788515,52.39205658203409,50.55495021926858,42.91851155505292,70.06019837190829,95.70700272806292,70.06019837190829,88.7910513762474,71.8070545374921,55.994190291024026,14.012100244983792,11.472677750458772,0.0,0.0,0.0,0.0,0.0,0.0,0.0,0.0,0.0,0.0,0.0,8.518952337327882,26.8894102589616,63.50433924978746,31.12178108316996,11.526585586359245,8.446873320786802,34.5437172508072,64.9453138745877,110.15127421928254,79.62369074306046,51.38355605648032,36.614928990825874,14.80436372091432,0.2883160661643195,0.0,0.0,0.0,0.0,0.0,0.0,0.0,0.0,0.0,0.0,0.0,8.10464941872201,32.45463718315858,49.78055507096799,89.81742022943111,104.3516390648217,119.55243737671196,99.52507063366544,87.80041917832357,48.19572526609626,59.8843372131676,31.04970206662888,13.309784113224278,0.1441580330821597,0.0,0.0,0.0,0.0,0.0,0.0,0.0,0.0,0.0,0.0,8.014702074550998,34.687875283889355,52.68037264819841,84.93664110936368,100.24555794606556,109.46682641515297,99.93937355227132,94.8783968908512,102.2086511612726,86.59354993077649,66.07980125258302,40.55928660188059,13.741955359460082,0.2701448855237111,0.0,0.0,0.0,0.0,0.0,0.0,0.0,0.0,0.0,0.0,9.311215813258409,34.34565138182456,62.15361482216891,84.70253573211052,100.94787407782506,110.9977483841242,113.98751330552564,67.124644139418,104.37011309847298,88.32253776873037,64.0628002014755,41.31581342255125,13.759823687090014,0.4321712462358025,0.0,0.0,0.0,0.0,0.0,0.0,0.0,0.0,0.0,0.0,8.680978698039974,34.18362502111247,62.58578606840471,73.68020040852815,56.33641419308882,22.495013074041136,74.78712816255188,74.69627225934885,74.7686541289006,56.20225030935899,22.42293405750005,32.23840013353534,13.88611339254224,0.4321712462358025,0.0,0.0,0.0,0.0,0.0,0.0,0.0,0.0,0.0,0.0,9.023202600104764,33.715414266606125,61.75748308420365,71.3827574695339,73.42004967235678,64.40805263364705,51.40354435518499,18.11848421675061,13.2377050966832,40.793391979133766,52.57225412338679,28.94275367135034,9.761558240134818,0.0,0.0,0.0,0.0,0.0,0.0,0.0,0.0,0.0,0.0,0.0,7.744557189027287,33.7693221025066,62.00975964209742,72.35673275187051,74.16749090270713,23.97172435410124,21.46834136784676,20.51374867819347,38.14585095979713,49.56431802134474,52.89630684481097,40.27127338872696,13.867942211901632,0.0,0.0,0.0,0.0,0.0,0.0,0.0,0.0,0.0,0.0,0.0,5.511016235285842,30.94188639482794,59.2719684255791,84.91877278173375,71.7171071933211,31.12178108316996,83.54987717347458,86.39548406179387,68.34907886158433,70.1501457160793,33.93134846321869,40.86547099567485,7.79846502492776,0.0,0.0,0.0,0.0,0.0,0.0,0.0,0.0,0.0,0.0,0.0,9.671610895963806,19.414997955458016,49.83446290686846,66.22395928566517,3.764160069702025,8.680978698039974,12.391230931841523,26.65530488170842,56.58838789797191,84.97268061763423,54.55321566622377,1.8731458710360465,14.029968572613724,0.0,0.0,0.0,0.0,0.0,0.0,0.0,0.0,0.0,0.0,0.0,8.428702140146193,33.37319036454134,60.85679823045082,83.71190353418667,99.12893889570016,112.72643336906742,115.98634317599256,108.4401547089586,100.04749207708296,74.0766349995041,65.14337974357034,39.87483879775101,15.45277201677336,0.0,0.0,0.0,0.0,0.0,0.0,0.0,0.0,0.0,0.0,0.0,8.879044567022605,32.112413281093794,58.335546916566415,82.61345566446191,100.0832287323428,86.71983963622873,94.66246269423864,111.66402500761318,102.100532636461,86.50360258660548,63.59458944696915,39.06440414117988,13.381560276754682,0.0,0.0,0.0,0.0,0.0,0.0,0.0,0.0,0.0,0.0,0.0,8.753057714581052,32.38255816661751,58.89370501524376,81.19065222030227,86.97181334111183,99.83125502745968,96.22912131846977,95.00438374329276,85.33307570033962,74.31074037675727,57.30887521037203,38.86633827219725,14.606297851931686,0.0,0.0,0.0,0.0,0.0,0.0,0.0,0.0,0.0,0.0,0.0,8.39296548488633,31.75232105139907,57.6332307848069,79.3895853658073,96.30120033501083,80.66823077688477,67.30453882776003,108.15183864279427,16.479443722967734,26.04293609411992,29.266806392774523,40.48720758533952,13.59779732637792,0.0,0.0,0.0,0.0,0.0,0.0,0.0,0.0,0.0,0.0,0.0,8.446873320786802,31.91434741211116,58.15534937521371,80.03799366166633,96.06739781076834,105.64875850955048,71.60898866850947,67.214591483589,100.49783450395934,85.20708884789808,65.10734023529979,40.52324709361005,15.434903689143429,0.1081185248116198,0.0,0.0,0.0,0.0,0.0,0.0,0.0,0.0,0.0,0.0,7.960491385639851,32.41859767488804,59.83042937726712,82.72157418927353,99.0386886985185,108.4401547089586,100.94787407782506,95.45502902317985,58.55148111317897,75.96764919817008,60.4967060007561,38.16402214043774,15.110548114708568,0.1081185248116198,0.0,0.0,0.0,0.0,0.0,0.0,0.0,0.0,0.0,0.0,7.6543069918456,30.72564934520469,48.48373847924991,73.44609503127498,90.75384173844378,87.3861162597177,90.10573629559542,65.62976167871729,79.89383562858418,67.30453882776003,58.78558649043214,38.10981145152658,5.259042530402739,0.0,0.0,0.0,0.0,0.0,0.0,0.0,0.0,0.0,0.0,0.0,1.945224887577126,10.320019191822848,28.94275367135034,33.51734839762349,68.5114080753071,95.56284469498078,89.16931478658272,88.6826299984251,80.63219126861424,61.901641117285806,43.02663007986453,32.81472941285331,12.6253363090947,0.0,0.0,0.0,0.0,0.0,0.0,0.0,0.0,0.0,0.0,0.0,7.888412369098772,20.153656448498747,31.21203128035165,54.03109707581697,82.05529756578454,82.70340300863292,77.22812342860693,96.33723984328137,95.14854177637493,71.23072525817415,56.60655907861253,29.266806392774523,10.392098208363928,0.0,0.0,0.0,0.0,0.0,0.0,0.0,0.0,0.0,0.0,0.0,6.735753810462847,30.79772836174577,56.62442740624245,78.79508490584873,71.95121257057427,83.62195619001567,36.36295528594277,103.3973492281791,91.78081629764884,66.65613053190098,17.073944182926304,7.528320139404049,0.0,0.0,0.0,0.0,0.0,0.0,0.0,0.0,0.0,0.0,0.0,0.0,7.8345045331983,30.83376787001632,56.6786380951536,79.47953270997832,96.9856481391404,59.68627134418497,97.52624076319852,98.48053059984112,62.78415479039802,78.43499267615401,51.131279498586544,34.16545384047186,9.815768929045966,0.0,0.0,0.0,0.0,0.0,0.0,0.0,0.0,0.0,0.0,0.0,7.366293778691958,31.26593911625212,58.96578403178484,72.43759450572121,84.03625910862154,88.73684068733624,72.41942332508061,68.79942128846075,85.62108891349325,86.89973432457074,58.80375767107275,38.34391682877976,15.002732442907623,0.1081185248116198,0.0,0.0,0.0,0.0,0.0,0.0,0.0,0.0,0.0,0.0,7.582227975304521,30.92371521418733,57.97515183386102,81.10040202312058,97.76004328744102,107.73783857719908,98.0123198453348,110.29543225236468,101.57811119304353,87.49423478452931,66.58435436837058,40.61319443778107,13.77799486773062,0.0,0.0,0.0,0.0,0.0,0.0,0.0,0.0,0.0,0.0,0.0,7.456241122862968,30.79772836174577,50.6630687440802,69.91604033882614,65.14337974357034,26.79946291479058,17.72204962577467,43.63899886745303,85.8009836018353,62.87410213456903,51.74364828617505,40.34304955225736,11.094414340123445,0.0,0.0,0.0,0.0,0.0,0.0,0.0,0.0,0.0,0.0,0.0,6.411701089038664,21.70244674509993,59.01999472069599,33.57125623352397,79.58765123478994,79.1194404802836,18.62273447952749,27.087476127944225,51.68974045027457,50.176686808933255,40.03686515846311,22.314815532688435,4.358357676649918,0.0,0.0,0.0,0.0,0.0,0.0,0.0,0.0,0.0,0.0,0.0,3.2959493151956814,22.94505264790687,8.32088646834525,22.332683860318365,26.79946291479058,50.8432662854329,53.11254389443421,58.96578403178484,62.315641182881,63.00008898701058,7.924451877369311,19.937419398875505,12.409099259471455,0.0,0.0,0.0,0.0,0.0,0.0,0.0,0.0,0.0,0.0,0.0,2.413435642083469,18.24447106919216,27.537818554820635,45.96248716536549,105.10846873850303,88.32253776873037,115.1580401917915,76.05759654234107,47.74538283921984,83.45992982930359,67.86299977944806,41.13561588119856,14.336152966407974,0.0,0.0,0.0,0.0,0.0,0.0,0.0,0.0,0.0,0.0,0.0,6.033437678703333,31.518215674145896,61.4331275097688,88.39461678527145,106.33320631368004,46.75475064129602,97.1298061722226,114.32943435457976,105.10816588549235,90.8619602632554,69.21372420706662,31.39192596869367,13.147454899501511,0.0,0.0,0.0,0.0,0.0,0.0,0.0,0.0,0.0,0.0,0.0,6.555859122120824,31.01366255835834,59.48820547520233,83.08166641896824,99.61501797783644,109.59281326759452,78.72330874231834,111.30362992490778,68.97961882981343,88.53877481835362,66.78242023735321,40.46933925770959,14.588429524301754,0.0,0.0,0.0,0.0,0.0,0.0,0.0,0.0,0.0,0.0,0.0,6.915951351815545,30.185359574157275,49.18635746402009,73.8964374581514,87.06176068528282,97.3097008605646,110.40324792416564,107.73783857719908,49.58248920198536,64.80115584150555,65.6115904980767,39.80275978120993,12.697415325635776,0.0,0.0,0.0,0.0,0.0,0.0,0.0,0.0,0.0,0.0,0.0,6.663674793921767,29.681109311380396,56.786453766954544,80.14611218647796,96.89539794195872,106.85532490408688,110.29543225236468,109.39474739861188,100.94817693083574,86.8636948163002,66.17005144976471,39.92904948666216,14.174126605695886,0.0,0.0,0.0,0.0,0.0,0.0,0.0,0.0,0.0,0.0,0.0,5.943490334532322,29.897043507992954,58.60569180209012,82.52320546728022,73.66233208089822,39.73068076466885,114.94180314216824,110.9977483841242,106.62121952683368,91.88893482246046,70.00629053600782,41.31581342255125,13.20166558841266,0.0,0.0,0.0,0.0,0.0,0.0,0.0,0.0,0.0,0.0,0.0,5.348989874573751,29.77105665555141,54.6613341910354,57.14684884965994,26.63713370106781,67.97111830425968,97.77791161507096,88.55694599899422,73.24802916229235,72.869765751957,49.56431802134474,33.51734839762349,13.075375882960431,0.0,0.0,0.0,0.0,0.0,0.0,0.0,0.0,0.0,0.0,0.0,4.988897644879028,24.349987764436573,50.41079218618642,75.6432936237352,83.53200884584466,97.47203007428736,113.03261776286168,94.69819934949852,87.20622157137566,80.63219126861424,66.07980125258302,34.50767774253665,12.427270440112066,0.0,0.0,0.0,0.0,0.0,0.0,0.0,0.0,0.0,0.0,0.0,5.169095186231729,29.662938130739786,59.09177088422639,82.93781123889677,99.77734719155924,109.66489228413558,79.02949313611258,14.318284638778044,49.47437067717374,84.68466740448058,69.84396132228504,36.18275774459007,12.76919148916618,0.0,0.0,0.0,0.0,0.0,0.0,0.0,0.0,0.0,0.0,0.0,5.78146397382023,23.48534241895429,48.68180434823253,63.9007738407634,87.85432701422403,55.59775570004808,45.92644765709495,65.05343239939933,72.1492784395569,61.4331275097688,40.82943148740431,18.44253693817479,7.474412303503577,0.0,0.0,0.0,0.0,0.0,0.0,0.0,0.0,0.0,0.0,0.0,2.845606888319271,20.20756428439922,22.188828680246885,23.39539507478328,67.30453882776003,57.41699373518365,58.695639146261136,88.19655091628883,83.02775858306778,79.15547998855413,46.68267162475494,19.505248152639705,12.733454833906316,0.0,0.0,0.0,0.0,0.0,0.0,0.0,0.0,0.0,0.0,0.0,5.36716105521436,29.032701015521354,42.70257735844035,42.63049834189928,100.92970289718446,82.59528448382129,82.03712638514394,112.1143674344896,102.91096729303212,88.77288019560679,47.04306670746034,29.879175180363024,4.142423480037356,0.0,0.0,0.0,0.0,0.0,0.0,0.0,0.0,0.0,0.0,0.0,5.259042530402739,29.05056934315128,57.47090157108412,81.31663907274383,98.22825404194737,108.02615464336338,111.52016982754172,108.980444480006,40.25310220808635,88.21472209692942,65.59372217044675,39.19039099362143,12.715283653265708,0.0,0.0,0.0,0.0,0.0,0.0,0.0,0.0,0.0,0.0,0.0,4.862910792437477,28.74438494935703,57.52511225999528,81.15461271203172,97.81395112334148,107.70179906892854,85.4051547168807,113.77127625590242,100.49753165094866,86.66562894731757,65.93594607251154,39.13648315772096,10.95025630704128,0.0,0.0,0.0,0.0,0.0,0.0,0.0,0.0,0.0,0.0,0.0,4.538555218002617,22.657039434753223,57.38095422691312,81.35267858101435,98.5526096163822,108.31416785651705,111.7721435324248,109.23272103789976,100.73163702820185,64.1527475456465,65.37748512082351,38.253969484608746,12.517217784283078,0.0,0.0,0.0,0.0,0.0,0.0,0.0,0.0,0.0,0.0,0.0,2.71962003587772,15.236837820160796,49.0961072668384,46.19659254261867,70.88880420912002,88.12477475275844,37.56952168047916,34.47163823426611,44.41339401575363,76.20175457542324,67.124644139418,38.9923251246388,12.751323161536249,0.0,0.0,0.0,0.0,0.0,0.0,0.0,0.0,0.0,0.0,0.0,4.718752759355318,28.095976653497985,57.398822554543045,82.05499471277388,98.5526096163822,86.30553671762286,113.77127625590242,78.43499267615401,60.190521606961845,70.65439597885617,65.899906564241,38.43416702596144,11.202532864935062,0.0,0.0,0.0,0.0,0.0,0.0,0.0,0.0,0.0,0.0,0.0,4.754792267625857,28.078108325868055,57.52511225999528,81.69459963006847,98.75067548536484,84.28823281350465,83.78398255072777,53.32847809104677,37.24546895905498,44.32344667158262,57.57902009589575,37.82179823837294,12.138954373947746,0.0,0.0,0.0,0.0,0.0,0.0,0.0,0.0,0.0,0.0,0.0,4.862910792437477,27.69984491553273,56.35428252071875,80.66823077688477,98.57047794401214,108
...